14
Ga4 As4
Ga    0.000000    0.000000    0.000000
Ga    0.000000    5.750182    5.750182
Ga    5.750182    0.000000    5.750182
Ga    5.750182    5.750182    0.000000
Ga    0.000000    2.875091    2.875091
Ga    5.750182    2.875091    2.875091
Ga    2.875091    0.000000    2.875091
Ga    2.875091    5.750182    2.875091
Ga    2.875091    2.875091    0.000000
Ga    2.875091    2.875091    5.750182
As    1.437546    4.312637    4.312637
As    1.437546    1.437546    1.437546
As    4.312637    4.312637    1.437546
As    4.312637    1.437546    4.312637
